R1 N001 N002 1k
V1 N001 0 SINE(0 5 1000)
C1 N002 0 1u
.tran 0 5ms 0 1us
