R1 N001 N002 1k
R2 N002 N003 2k
V1 N001 0 SINE(0 5 1000)
C1 N003 0 1u
.tran 0 5ms 0 1us
.end
