*
I1 N001 N002 4m
I2 N001 N002 6m
R1 N002 N003 7.5k
R2 N003 0 780
R3 N001 0 6k
R4 N002 0 5.34k
.tran 0 5ms 0 1us
.end
