*
R1 N001 N002 1k
V1 N001 0 6.8
R2 N003 N004 4k
R3 N004 0 3.3k
V2 N002 N003 11
.tran 0 5ms 0 0.1us
.end
