V1 003 0 SINE 2 1 1000 
R1 001 003 1k 
C1 001 0 1u 
I1 0 004 0.1 
D1 004 002 D 
L1 002 001 1m 
R2 002 001 1Meg 
Q1 003 001 0 NPN 
.tran 0 10ms 0 1us 
