C1 001 0 1u 
L1 001 002 1m 
R2 001 002 1Meg 
R1 001 003 1k 
Q1 001 003 0 NPN 
D1 002 004 D 
L1 002 001 1m 
R2 002 001 1Meg 
V1 003 0 SINE 2 1 1000 
R1 003 001 1k 
Q1 003 001 0 NPN 
I1 004 0 -0.1 
D1 004 002 D 
.tran 0 10m 0 1u 
